LAMMPS (2 Aug 2023 - Update 3)
units metal
boundary p p p
atom_style full
pair_style tersoff
neighbor 2.0 bin
neigh_modify delay 1

read_data SiO.data
Reading data file ...
  orthogonal box = (0 0 0) to (12.589463 12.589463 13.222096)
  reading atoms ...
  96 atoms
Finding 1-2 1-3 1-4 neighbors ...
     0 = max # of 1-2 neighbors
     0 = max # of 1-3 neighbors
     0 = max # of 1-4 neighbors
     1 = max # of special neighbors
replicate 1 1 1
Replication is creating a 1x1x1 = 1 times larger system...
  orthogonal box = (0 0 0) to (12.589463 12.589463 13.222096)
  96 atoms
Finding 1-2 1-3 1-4 neighbors ...
     0 = max # of 1-2 neighbors
     0 = max # of 1-3 neighbors
     0 = max # of 1-4 neighbors
     1 = max # of special neighbors
  replicate CPU = 0.001 seconds

pair_coeff * *  /root/Desktop/host/job1/SiO.tersoff Si O
Reading tersoff potential file /root/Desktop/host/job1/SiO.tersoff with DATE: 2010-08-16

group Si type 1
32 atoms in group Si
group O type 2
64 atoms in group O
#create_bonds many SiO SiO 1 0.5 10

dump dmp all xyz 2000 dump.lammpstrj

variable apot equal pe
# first number: number of steps to get current temp
# second number: calculate average n number of temp read above.
# third number: temp record (this must be larger than the one above )

variable atemp equal temp
fix temp_info all ave/time 10 200 2000 v_atemp file temperature.dat

#The cutoff used for pairwise computation (any pair style) and the
#associated neighbor list is the maximum cutoff that any compute
#can use. Atoms don't know any info about their neighbors
#further away than that.

# compute coord number
compute coor12 Si coord/atom cutoff 2.5 group O
compute coor11 Si coord/atom cutoff 2.5 group Si
compute coor22 O coord/atom cutoff 2.0 group O

compute sumcoor12 all reduce ave c_coor12
compute sumcoor11 all reduce ave c_coor11
compute sumcoor22 all reduce ave c_coor22

fix 12coord all ave/time  10 200 2000 c_sumcoor12 file Si-O_coord_number.dat
fix 11coord all ave/time  10 200 2000  c_sumcoor11 file Si-Si_coord_number.dat
fix 22coord all ave/time  10 200 2000  c_sumcoor22 file O-O_coord_number.dat

# unit cell information
variable avol equal vol
variable alx equal lx
variable aly equal ly
variable alz equal lz
fix cell_info all ave/time 10 200 2000 v_avol v_alx v_aly v_alz file cell_volume.dat

fix potential_info all ave/time 10 200 2000 v_apot file potential-energy.dat
thermo 1000

velocity all create 6000 33821 mom yes rot no dist gaussian
fix npt1 all npt temp 6000 5000 0.1 iso 0 0  1
timestep 0.001
#run 500
run 80000
Step          Temp          E_pair         E_mol          TotEng         Press          Volume
0   6000          -638.06385      0             -564.38556      73800.118      2095.6304
Averages over the last 41 of 81 rows, steps 40000 to 80000:
Temp E_pair E_mol TotEng Press Volume
5286.06 -550.615 0 -485.704 -5494.81 1450.12
Loop time of 7.18651 on 1 procs for 80000 steps with 96 atoms

fix npt1 all npt temp 5000 4000 0.1 iso 0 0 1
run 80000
Step          Temp          E_pair         E_mol          TotEng         Press          Volume
80000   4925.404      -549.43716      0             -488.9546       14878.249      1378.1596
Averages over the last 41 of 81 rows, steps 120000 to 160000:
Temp E_pair E_mol TotEng Press Volume
4295.34 -568.151 0 -515.405 1462.06 1511.73
Loop time of 7.24331 on 1 procs for 80000 steps with 96 atoms

fix npt1 all npt temp 4000 4000 0.1 iso 0 0 1
run 80000
Step          Temp          E_pair         E_mol          TotEng         Press          Volume
160000   4161.1103     -564.74238      0             -513.64514      10336.679      1491.2677
Averages over the last 41 of 81 rows, steps 200000 to 240000:
Temp E_pair E_mol TotEng Press Volume
4003.61 -572.047 0 -522.883 3413.98 1684.85
Loop time of 6.64308 on 1 procs for 80000 steps with 96 atoms

fix npt1 all npt temp 4000 3000 0.1 iso 0 0  1
run 80000
Step          Temp          E_pair         E_mol          TotEng         Press          Volume
240000   4128.8235     -571.6605       0             -520.95973      51502.06       1606.594
Averages over the last 41 of 81 rows, steps 280000 to 320000:
Temp E_pair E_mol TotEng Press Volume
3235.96 -586.131 0 -546.394 -1212.58 1827.05
Loop time of 6.41113 on 1 procs for 80000 steps with 96 atoms

fix npt1 all npt temp 3000 3000 0.1 iso 0 0 1
run 80000
Step          Temp          E_pair         E_mol          TotEng         Press          Volume
320000   2827.2229     -580.82562      0             -546.10814     -16964.341      1976.6464
Averages over the last 41 of 81 rows, steps 360000 to 400000:
Temp E_pair E_mol TotEng Press Volume
3064.75 -589.665 0 -552.031 35.5148 1789.63
Loop time of 6.18545 on 1 procs for 80000 steps with 96 atoms

fix npt1 all npt temp 3000 2000 0.1 iso 0 0 1
run 80000
Step          Temp          E_pair         E_mol          TotEng         Press          Volume
400000   2935.0742     -590.379        0             -554.33713     -15013.777      1895.9912
Averages over the last 41 of 81 rows, steps 440000 to 480000:
Temp E_pair E_mol TotEng Press Volume
2303.11 -598.076 0 -569.794 2053.18 1789.72
Loop time of 6.11751 on 1 procs for 80000 steps with 96 atoms

fix npt1 all npt temp 2000 2000 0.1 iso 0 0 1
run 80000
Step          Temp          E_pair         E_mol          TotEng         Press          Volume
480000   2276.5009     -600.39709      0             -572.44231     -6175.713       1853.6352
Averages over the last 41 of 81 rows, steps 520000 to 560000:
Temp E_pair E_mol TotEng Press Volume
2059.12 -601.355 0 -576.07 -101.787 1787.7
Loop time of 5.9106 on 1 procs for 80000 steps with 96 atoms

fix npt1 all npt temp 2000 1000 0.1 iso 0 0 1
run 80000
Step          Temp          E_pair         E_mol          TotEng         Press          Volume
560000   2355.8112     -601.12997      0             -572.20128      4415.5405      1763.7625
Averages over the last 41 of 81 rows, steps 600000 to 640000:
Temp E_pair E_mol TotEng Press Volume
1236.07 -611.374 0 -596.196 -1833.41 1770
Loop time of 5.81041 on 1 procs for 80000 steps with 96 atoms

fix npt1 all npt temp 1000 1000 0.1 iso 0 0 1
run 80000
Step          Temp          E_pair         E_mol          TotEng         Press          Volume
640000   1071.1902     -616.40174      0             -603.24783      13148.801      1732.5873
Averages over the last 41 of 81 rows, steps 680000 to 720000:
Temp E_pair E_mol TotEng Press Volume
985.029 -614.948 0 -602.852 -619.795 1759.6
Loop time of 5.71501 on 1 procs for 80000 steps with 96 atoms

fix npt1 all npt temp 1000 500 0.1 iso 0 0 1
run 80000
Step          Temp          E_pair         E_mol          TotEng         Press          Volume
720000   1055.8681     -614.30658      0             -601.34082      3930.6639      1736.8508
Averages over the last 41 of 81 rows, steps 760000 to 800000:
Temp E_pair E_mol TotEng Press Volume
626.27 -620.043 0 -612.352 -164.726 1751.55
Loop time of 5.61167 on 1 procs for 80000 steps with 96 atoms

fix npt1 all npt temp 500 500 0.1 iso 0 0 1
run 80000
Step          Temp          E_pair         E_mol          TotEng         Press          Volume
800000   556.05813     -621.90377      0             -615.07553     -4421.2343      1754.1053
Averages over the last 41 of 81 rows, steps 840000 to 880000:
Temp E_pair E_mol TotEng Press Volume
504.907 -621.642 0 -615.442 -1015.77 1754.9
Loop time of 5.52729 on 1 procs for 80000 steps with 96 atoms

fix npt1 all npt temp 500 10 0.1 iso 0 0 1
run 80000
Step          Temp          E_pair         E_mol          TotEng         Press          Volume
880000   510.03636     -621.41086      0             -615.14776      1342.476       1727.3748
Averages over the last 41 of 81 rows, steps 920000 to 960000:
Temp E_pair E_mol TotEng Press Volume
137.138 -626.488 0 -624.804 80.7768 1738.17
Loop time of 5.38892 on 1 procs for 80000 steps with 96 atoms

fix npt1 all npt temp 10 10 0.1 iso 0 0 1
run 80000
Step          Temp          E_pair         E_mol          TotEng         Press          Volume
960000   10.961269     -628.02513      0             -627.89052     -2060.7686      1734.2253
Averages over the last 41 of 81 rows, steps 1000000 to 1040000:
Temp E_pair E_mol TotEng Press Volume
9.99529 -628.022 0 -627.9 -265.371 1733.37
Loop time of 5.38078 on 1 procs for 80000 steps with 96 atoms

write_data amorphousSiO.data
System init for write_data ...
