LAMMPS (2 Aug 2023 - Update 3)
units metal
boundary p p p
atom_style full
pair_style tersoff
neighbor 2.0 bin
neigh_modify delay 1

read_data SiO.data
Reading data file ...
  orthogonal box = (0 0 0) to (12.589463 12.589463 13.222096)
  reading atoms ...
  96 atoms
Finding 1-2 1-3 1-4 neighbors ...
     0 = max # of 1-2 neighbors
     0 = max # of 1-3 neighbors
     0 = max # of 1-4 neighbors
     1 = max # of special neighbors
replicate 1 1 1
Replication is creating a 1x1x1 = 1 times larger system...
  orthogonal box = (0 0 0) to (12.589463 12.589463 13.222096)
  96 atoms
Finding 1-2 1-3 1-4 neighbors ...
     0 = max # of 1-2 neighbors
     0 = max # of 1-3 neighbors
     0 = max # of 1-4 neighbors
     1 = max # of special neighbors
  replicate CPU = 0.001 seconds

pair_coeff * *  /root/Desktop/host/job1/SiO.tersoff Si O
Reading tersoff potential file /root/Desktop/host/job1/SiO.tersoff with DATE: 2010-08-16

group Si type 1
32 atoms in group Si
group O type 2
64 atoms in group O
#create_bonds many SiO SiO 1 0.5 10

dump dmp all xyz 2000 dump.lammpstrj

variable apot equal pe
# first number: number of steps to get current temp
# second number: calculate average n number of temp read above.
# third number: temp record (this must be larger than the one above )

variable atemp equal temp
fix temp_info all ave/time 10 200 2000 v_atemp file temperature.dat

#The cutoff used for pairwise computation (any pair style) and the
#associated neighbor list is the maximum cutoff that any compute
#can use. Atoms don't know any info about their neighbors
#further away than that.

# compute coord number
compute coor12 Si coord/atom cutoff 2.5 group O
compute coor11 Si coord/atom cutoff 2.5 group Si
compute coor22 O coord/atom cutoff 2.0 group O

compute sumcoor12 all reduce ave c_coor12
compute sumcoor11 all reduce ave c_coor11
compute sumcoor22 all reduce ave c_coor22

fix 12coord all ave/time  10 200 2000 c_sumcoor12 file Si-O_coord_number.dat
fix 11coord all ave/time  10 200 2000  c_sumcoor11 file Si-Si_coord_number.dat
fix 22coord all ave/time  10 200 2000  c_sumcoor22 file O-O_coord_number.dat

# unit cell information
variable avol equal vol
variable alx equal lx
variable aly equal ly
variable alz equal lz
fix cell_info all ave/time 10 200 2000 v_avol v_alx v_aly v_alz file cell_volume.dat

fix potential_info all ave/time 10 200 2000 v_apot file potential-energy.dat
thermo 1000

velocity all create 6000 4923176 mom yes rot no dist gaussian
fix npt1 all npt temp 6000 5000 0.1 iso 0 0  1
timestep 0.001
#run 500
run 80000
Step          Temp          E_pair         E_mol          TotEng         Press          Volume
0   6000          -638.06385      0             -564.38556      73800.118      2095.6304
Averages over the last 41 of 81 rows, steps 40000 to 80000:
Temp E_pair E_mol TotEng Press Volume
5229.55 -552.039 0 -487.822 -3718.49 1623.61
Loop time of 6.74883 on 1 procs for 80000 steps with 96 atoms

fix npt1 all npt temp 5000 4000 0.1 iso 0 0 1
run 80000
Step          Temp          E_pair         E_mol          TotEng         Press          Volume
80000   5372.3975     -555.80923      0             -489.83772     -37430.073      1758.6146
Averages over the last 41 of 81 rows, steps 120000 to 160000:
Temp E_pair E_mol TotEng Press Volume
4184.18 -567.578 0 -516.198 -7187.26 1588.84
Loop time of 6.6829 on 1 procs for 80000 steps with 96 atoms

fix npt1 all npt temp 4000 4000 0.1 iso 0 0 1
run 80000
Step          Temp          E_pair         E_mol          TotEng         Press          Volume
160000   3868.058      -571.87996      0             -524.38131     -25737.592      1500.8764
Averages over the last 41 of 81 rows, steps 200000 to 240000:
Temp E_pair E_mol TotEng Press Volume
3960.37 -574.486 0 -525.854 1725.27 1502.16
Loop time of 6.74242 on 1 procs for 80000 steps with 96 atoms

fix npt1 all npt temp 4000 3000 0.1 iso 0 0  1
run 80000
Step          Temp          E_pair         E_mol          TotEng         Press          Volume
240000   3714.5283     -574.39584      0             -528.7825      -36425.999      1467.9953
Averages over the last 41 of 81 rows, steps 280000 to 320000:
Temp E_pair E_mol TotEng Press Volume
3305.68 -585.275 0 -544.682 82.0329 1473.42
Loop time of 6.73756 on 1 procs for 80000 steps with 96 atoms

fix npt1 all npt temp 3000 3000 0.1 iso 0 0 1
run 80000
Step          Temp          E_pair         E_mol          TotEng         Press          Volume
320000   2918.0493     -594.91866      0             -559.08584     -19902.135      1569.3631
Averages over the last 41 of 81 rows, steps 360000 to 400000:
Temp E_pair E_mol TotEng Press Volume
3028.51 -589.936 0 -552.746 4384.06 1491.42
Loop time of 6.28966 on 1 procs for 80000 steps with 96 atoms

fix npt1 all npt temp 3000 2000 0.1 iso 0 0 1
run 80000
Step          Temp          E_pair         E_mol          TotEng         Press          Volume
400000   3220.5254     -590.45941      0             -550.91228     -8518.5785      1480.0066
Averages over the last 41 of 81 rows, steps 440000 to 480000:
Temp E_pair E_mol TotEng Press Volume
2238.64 -599.272 0 -571.782 2863.96 1440.99
Loop time of 6.56749 on 1 procs for 80000 steps with 96 atoms

fix npt1 all npt temp 2000 2000 0.1 iso 0 0 1
run 80000
Step          Temp          E_pair         E_mol          TotEng         Press          Volume
480000   1718.9671     -603.2719       0             -582.16347     -1080.2523      1480.958
Averages over the last 41 of 81 rows, steps 520000 to 560000:
Temp E_pair E_mol TotEng Press Volume
1992.66 -601.081 0 -576.612 -3621.34 1437.4
Loop time of 6.34527 on 1 procs for 80000 steps with 96 atoms

fix npt1 all npt temp 2000 1000 0.1 iso 0 0 1
run 80000
Step          Temp          E_pair         E_mol          TotEng         Press          Volume
560000   1843.9064     -601.53656      0             -578.89392      1998.9659      1417.2143
Averages over the last 41 of 81 rows, steps 600000 to 640000:
Temp E_pair E_mol TotEng Press Volume
1240.62 -612.51 0 -597.275 304.471 1372.56
Loop time of 6.15344 on 1 procs for 80000 steps with 96 atoms

fix npt1 all npt temp 1000 1000 0.1 iso 0 0 1
run 80000
Step          Temp          E_pair         E_mol          TotEng         Press          Volume
640000   1017.5057     -616.39499      0             -603.90031     -5793.8289      1374.5038
Averages over the last 41 of 81 rows, steps 680000 to 720000:
Temp E_pair E_mol TotEng Press Volume
987.875 -615.886 0 -603.755 278.707 1363.77
Loop time of 6.0429 on 1 procs for 80000 steps with 96 atoms

fix npt1 all npt temp 1000 500 0.1 iso 0 0 1
run 80000
Step          Temp          E_pair         E_mol          TotEng         Press          Volume
720000   1028.8705     -616.82109      0             -604.18686     -9180.0552      1377.4618
Averages over the last 41 of 81 rows, steps 760000 to 800000:
Temp E_pair E_mol TotEng Press Volume
622.165 -620.852 0 -613.212 1684.98 1353.57
Loop time of 5.88612 on 1 procs for 80000 steps with 96 atoms

fix npt1 all npt temp 500 500 0.1 iso 0 0 1
run 80000
Step          Temp          E_pair         E_mol          TotEng         Press          Volume
800000   510.46675     -622.20159      0             -615.9332       2037.2326      1363.5454
Averages over the last 41 of 81 rows, steps 840000 to 880000:
Temp E_pair E_mol TotEng Press Volume
498.064 -622.514 0 -616.398 -1770.56 1353.34
Loop time of 5.77636 on 1 procs for 80000 steps with 96 atoms

fix npt1 all npt temp 500 10 0.1 iso 0 0 1
run 80000
Step          Temp          E_pair         E_mol          TotEng         Press          Volume
880000   539.60461     -622.16622      0             -615.54003     -8279.6766      1373.8694
Averages over the last 41 of 81 rows, steps 920000 to 960000:
Temp E_pair E_mol TotEng Press Volume
132.881 -627.31 0 -625.679 197.977 1339.52
Loop time of 5.76089 on 1 procs for 80000 steps with 96 atoms

fix npt1 all npt temp 10 10 0.1 iso 0 0 1
run 80000
Step          Temp          E_pair         E_mol          TotEng         Press          Volume
960000   10.576564     -628.85946      0             -628.72958     -718.52557      1337.0048
Averages over the last 41 of 81 rows, steps 1000000 to 1040000:
Temp E_pair E_mol TotEng Press Volume
9.88101 -628.847 0 -628.725 460.462 1334.59
Loop time of 5.89268 on 1 procs for 80000 steps with 96 atoms

write_data amorphousSiO.data
System init for write_data ...
