LAMMPS (2 Aug 2023 - Update 3)
units metal
boundary p p p
atom_style full
pair_style tersoff
neighbor 2.0 bin
neigh_modify delay 1

read_data SiO.data
Reading data file ...
  orthogonal box = (0 0 0) to (12.589463 12.589463 13.222096)
  reading atoms ...
  96 atoms
Finding 1-2 1-3 1-4 neighbors ...
     0 = max # of 1-2 neighbors
     0 = max # of 1-3 neighbors
     0 = max # of 1-4 neighbors
     1 = max # of special neighbors
replicate 1 1 1
Replication is creating a 1x1x1 = 1 times larger system...
  orthogonal box = (0 0 0) to (12.589463 12.589463 13.222096)
  96 atoms
Finding 1-2 1-3 1-4 neighbors ...
     0 = max # of 1-2 neighbors
     0 = max # of 1-3 neighbors
     0 = max # of 1-4 neighbors
     1 = max # of special neighbors
  replicate CPU = 0.001 seconds

pair_coeff * *  /root/Desktop/host/job1/SiO.tersoff Si O
Reading tersoff potential file /root/Desktop/host/job1/SiO.tersoff with DATE: 2010-08-16

group Si type 1
32 atoms in group Si
group O type 2
64 atoms in group O
#create_bonds many SiO SiO 1 0.5 10

dump dmp all xyz 2000 dump.lammpstrj

variable apot equal pe
# first number: number of steps to get current temp
# second number: calculate average n number of temp read above.
# third number: temp record (this must be larger than the one above )

variable atemp equal temp
fix temp_info all ave/time 10 200 2000 v_atemp file temperature.dat

#The cutoff used for pairwise computation (any pair style) and the
#associated neighbor list is the maximum cutoff that any compute
#can use. Atoms don't know any info about their neighbors
#further away than that.

# compute coord number
compute coor12 Si coord/atom cutoff 2.5 group O
compute coor11 Si coord/atom cutoff 2.5 group Si
compute coor22 O coord/atom cutoff 2.0 group O

compute sumcoor12 all reduce ave c_coor12
compute sumcoor11 all reduce ave c_coor11
compute sumcoor22 all reduce ave c_coor22

fix 12coord all ave/time  10 200 2000 c_sumcoor12 file Si-O_coord_number.dat
fix 11coord all ave/time  10 200 2000  c_sumcoor11 file Si-Si_coord_number.dat
fix 22coord all ave/time  10 200 2000  c_sumcoor22 file O-O_coord_number.dat

# unit cell information
variable avol equal vol
variable alx equal lx
variable aly equal ly
variable alz equal lz
fix cell_info all ave/time 10 200 2000 v_avol v_alx v_aly v_alz file cell_volume.dat

fix potential_info all ave/time 10 200 2000 v_apot file potential-energy.dat
thermo 1000

velocity all create 6000 293472 mom yes rot no dist gaussian
fix npt1 all npt temp 6000 5000 0.1 iso 0 0  1
timestep 0.001
#run 500
run 80000
Step          Temp          E_pair         E_mol          TotEng         Press          Volume
0   6000          -638.06385      0             -564.38556      73800.118      2095.6304
Averages over the last 41 of 81 rows, steps 40000 to 80000:
Temp E_pair E_mol TotEng Press Volume
5226.82 -551.376 0 -487.192 -779.51 1514.06
Loop time of 7.10002 on 1 procs for 80000 steps with 96 atoms

fix npt1 all npt temp 5000 4000 0.1 iso 0 0 1
run 80000
Step          Temp          E_pair         E_mol          TotEng         Press          Volume
80000   5240.8016     -557.12823      0             -492.77268      37361.289      1362.9884
Averages over the last 41 of 81 rows, steps 120000 to 160000:
Temp E_pair E_mol TotEng Press Volume
4225.63 -568.652 0 -516.762 194.355 1523.6
Loop time of 6.83737 on 1 procs for 80000 steps with 96 atoms

fix npt1 all npt temp 4000 4000 0.1 iso 0 0 1
run 80000
Step          Temp          E_pair         E_mol          TotEng         Press          Volume
160000   4290.041      -579.41271      0             -526.73223     -4133.9794      1545.4685
Averages over the last 41 of 81 rows, steps 200000 to 240000:
Temp E_pair E_mol TotEng Press Volume
4023.21 -576.156 0 -526.752 4231.96 1558.44
Loop time of 6.48827 on 1 procs for 80000 steps with 96 atoms

fix npt1 all npt temp 4000 3000 0.1 iso 0 0  1
run 80000
Step          Temp          E_pair         E_mol          TotEng         Press          Volume
240000   4293.3198     -568.02129      0             -515.30055      14927.328      1468.9393
Averages over the last 41 of 81 rows, steps 280000 to 320000:
Temp E_pair E_mol TotEng Press Volume
3303.33 -585.654 0 -545.09 -4650.57 1567.34
Loop time of 6.25836 on 1 procs for 80000 steps with 96 atoms

fix npt1 all npt temp 3000 3000 0.1 iso 0 0 1
run 80000
Step          Temp          E_pair         E_mol          TotEng         Press          Volume
320000   3756.1864     -595.57347      0             -549.44858     -3978.0145      1594.7021
Averages over the last 41 of 81 rows, steps 360000 to 400000:
Temp E_pair E_mol TotEng Press Volume
3080.64 -591.321 0 -553.491 581.436 1534.56
Loop time of 6.17202 on 1 procs for 80000 steps with 96 atoms

fix npt1 all npt temp 3000 2000 0.1 iso 0 0 1
run 80000
Step          Temp          E_pair         E_mol          TotEng         Press          Volume
400000   3104.9123     -589.71243      0             -551.58499      8278.24        1493.224
Averages over the last 41 of 81 rows, steps 440000 to 480000:
Temp E_pair E_mol TotEng Press Volume
2224.35 -601.531 0 -574.216 -1772.37 1548.13
Loop time of 6.06477 on 1 procs for 80000 steps with 96 atoms

fix npt1 all npt temp 2000 2000 0.1 iso 0 0 1
run 80000
Step          Temp          E_pair         E_mol          TotEng         Press          Volume
480000   1980.9983     -602.20582      0             -577.87973     -23752.855      1538.1677
Averages over the last 41 of 81 rows, steps 520000 to 560000:
Temp E_pair E_mol TotEng Press Volume
1995.46 -606.175 0 -581.672 264.774 1541.39
Loop time of 6.08087 on 1 procs for 80000 steps with 96 atoms

fix npt1 all npt temp 2000 1000 0.1 iso 0 0 1
run 80000
Step          Temp          E_pair         E_mol          TotEng         Press          Volume
560000   2286.1259     -606.33079      0             -578.25782      13025.921      1507.3058
Averages over the last 41 of 81 rows, steps 600000 to 640000:
Temp E_pair E_mol TotEng Press Volume
1269.03 -615.709 0 -600.126 853.7 1521.48
Loop time of 5.80328 on 1 procs for 80000 steps with 96 atoms

fix npt1 all npt temp 1000 1000 0.1 iso 0 0 1
run 80000
Step          Temp          E_pair         E_mol          TotEng         Press          Volume
640000   1091.0327     -617.12709      0             -603.72952      933.53544      1527.6813
Averages over the last 41 of 81 rows, steps 680000 to 720000:
Temp E_pair E_mol TotEng Press Volume
1002.13 -619.396 0 -607.09 -1594.29 1515.24
Loop time of 5.64214 on 1 procs for 80000 steps with 96 atoms

fix npt1 all npt temp 1000 500 0.1 iso 0 0 1
run 80000
Step          Temp          E_pair         E_mol          TotEng         Press          Volume
720000   880.60221     -617.14548      0             -606.33194     -11664.312      1548.1809
Averages over the last 41 of 81 rows, steps 760000 to 800000:
Temp E_pair E_mol TotEng Press Volume
634.324 -624.28 0 -616.491 -207.229 1504.14
Loop time of 5.5967 on 1 procs for 80000 steps with 96 atoms

fix npt1 all npt temp 500 500 0.1 iso 0 0 1
run 80000
Step          Temp          E_pair         E_mol          TotEng         Press          Volume
800000   522.68664     -625.85427      0             -619.43583     -4411.4383      1494.2945
Averages over the last 41 of 81 rows, steps 840000 to 880000:
Temp E_pair E_mol TotEng Press Volume
501.103 -626.196 0 -620.043 -162.203 1501.11
Loop time of 5.42538 on 1 procs for 80000 steps with 96 atoms

fix npt1 all npt temp 500 10 0.1 iso 0 0 1
run 80000
Step          Temp          E_pair         E_mol          TotEng         Press          Volume
880000   504.03438     -626.06336      0             -619.87396     -9241.9819      1510.5447
Averages over the last 41 of 81 rows, steps 920000 to 960000:
Temp E_pair E_mol TotEng Press Volume
133.671 -630.842 0 -629.201 -211.536 1485.89
Loop time of 5.35347 on 1 procs for 80000 steps with 96 atoms

fix npt1 all npt temp 10 10 0.1 iso 0 0 1
run 80000
Step          Temp          E_pair         E_mol          TotEng         Press          Volume
960000   10.229632     -632.33801      0             -632.21239     -1576.3308      1484.7249
Averages over the last 41 of 81 rows, steps 1000000 to 1040000:
Temp E_pair E_mol TotEng Press Volume
9.91535 -632.354 0 -632.232 319.27 1484.14
Loop time of 5.29665 on 1 procs for 80000 steps with 96 atoms

write_data amorphousSiO.data
System init for write_data ...
