LAMMPS (2 Aug 2023 - Update 3)
units metal
boundary p p p
atom_style full
pair_style tersoff
neighbor 2.0 bin
neigh_modify delay 1

read_data SiO.data
Reading data file ...
  orthogonal box = (0 0 0) to (12.589463 12.589463 13.222096)
  reading atoms ...
  96 atoms
Finding 1-2 1-3 1-4 neighbors ...
     0 = max # of 1-2 neighbors
     0 = max # of 1-3 neighbors
     0 = max # of 1-4 neighbors
     1 = max # of special neighbors
replicate 1 1 1
Replication is creating a 1x1x1 = 1 times larger system...
  orthogonal box = (0 0 0) to (12.589463 12.589463 13.222096)
  96 atoms
Finding 1-2 1-3 1-4 neighbors ...
     0 = max # of 1-2 neighbors
     0 = max # of 1-3 neighbors
     0 = max # of 1-4 neighbors
     1 = max # of special neighbors
  replicate CPU = 0.001 seconds

pair_coeff * *  /root/Desktop/host/job1/SiO.tersoff Si O
Reading tersoff potential file /root/Desktop/host/job1/SiO.tersoff with DATE: 2010-08-16

group Si type 1
32 atoms in group Si
group O type 2
64 atoms in group O
#create_bonds many SiO SiO 1 0.5 10

dump dmp all xyz 2000 dump.lammpstrj

variable apot equal pe
# first number: number of steps to get current temp
# second number: calculate average n number of temp read above.
# third number: temp record (this must be larger than the one above )

variable atemp equal temp
fix temp_info all ave/time 10 200 2000 v_atemp file temperature.dat

#The cutoff used for pairwise computation (any pair style) and the
#associated neighbor list is the maximum cutoff that any compute
#can use. Atoms don't know any info about their neighbors
#further away than that.

# compute coord number
compute coor12 Si coord/atom cutoff 2.5 group O
compute coor11 Si coord/atom cutoff 2.5 group Si
compute coor22 O coord/atom cutoff 2.0 group O

compute sumcoor12 all reduce ave c_coor12
compute sumcoor11 all reduce ave c_coor11
compute sumcoor22 all reduce ave c_coor22

fix 12coord all ave/time  10 200 2000 c_sumcoor12 file Si-O_coord_number.dat
fix 11coord all ave/time  10 200 2000  c_sumcoor11 file Si-Si_coord_number.dat
fix 22coord all ave/time  10 200 2000  c_sumcoor22 file O-O_coord_number.dat

# unit cell information
variable avol equal vol
variable alx equal lx
variable aly equal ly
variable alz equal lz
fix cell_info all ave/time 10 200 2000 v_avol v_alx v_aly v_alz file cell_volume.dat

fix potential_info all ave/time 10 200 2000 v_apot file potential-energy.dat
thermo 1000

velocity all create 6000 12345 mom yes rot no dist gaussian
fix npt1 all npt temp 6000 5000 0.1 iso 0 0  1
timestep 0.001
#run 500
run 80000
Step          Temp          E_pair         E_mol          TotEng         Press          Volume
0   6000          -638.06385      0             -564.38556      73800.118      2095.6304
Averages over the last 41 of 81 rows, steps 40000 to 80000:
Temp E_pair E_mol TotEng Press Volume
5213.53 -550.876 0 -486.855 -126.608 1586.35
Loop time of 6.88648 on 1 procs for 80000 steps with 96 atoms

fix npt1 all npt temp 5000 4000 0.1 iso 0 0 1
run 80000
Step          Temp          E_pair         E_mol          TotEng         Press          Volume
80000   4555.985      -557.63996      0             -501.69377      6514.7498      1569.3567
Averages over the last 41 of 81 rows, steps 120000 to 160000:
Temp E_pair E_mol TotEng Press Volume
4368.62 -569.786 0 -516.14 699.633 1482.11
Loop time of 7.0935 on 1 procs for 80000 steps with 96 atoms

fix npt1 all npt temp 4000 4000 0.1 iso 0 0 1
run 80000
Step          Temp          E_pair         E_mol          TotEng         Press          Volume
160000   3621.3105     -573.97738      0             -529.50872      21992.062      1566.2789
Averages over the last 41 of 81 rows, steps 200000 to 240000:
Temp E_pair E_mol TotEng Press Volume
4042.54 -573.554 0 -523.912 1022.67 1569.49
Loop time of 6.67518 on 1 procs for 80000 steps with 96 atoms

fix npt1 all npt temp 4000 3000 0.1 iso 0 0  1
run 80000
Step          Temp          E_pair         E_mol          TotEng         Press          Volume
240000   3504.3474     -572.53268      0             -529.50029     -65715.323      1579.6299
Averages over the last 41 of 81 rows, steps 280000 to 320000:
Temp E_pair E_mol TotEng Press Volume
3299 -584.289 0 -543.778 9939.75 1354.41
Loop time of 7.04589 on 1 procs for 80000 steps with 96 atoms

fix npt1 all npt temp 3000 3000 0.1 iso 0 0 1
run 80000
Step          Temp          E_pair         E_mol          TotEng         Press          Volume
320000   3165.2435     -584.47067      0             -545.60239     -19957.954      1381.0562
Averages over the last 41 of 81 rows, steps 360000 to 400000:
Temp E_pair E_mol TotEng Press Volume
2950.12 -588.719 0 -552.492 -708.031 1382.5
Loop time of 6.86842 on 1 procs for 80000 steps with 96 atoms

fix npt1 all npt temp 3000 2000 0.1 iso 0 0 1
run 80000
Step          Temp          E_pair         E_mol          TotEng         Press          Volume
400000   2939.6555     -594.03976      0             -557.94163     -11803.509      1340.0417
Averages over the last 41 of 81 rows, steps 440000 to 480000:
Temp E_pair E_mol TotEng Press Volume
2292.67 -600.171 0 -572.017 2949.34 1319.04
Loop time of 6.91034 on 1 procs for 80000 steps with 96 atoms

fix npt1 all npt temp 2000 2000 0.1 iso 0 0 1
run 80000
Step          Temp          E_pair         E_mol          TotEng         Press          Volume
480000   1938.5807     -606.49125      0             -582.68603     -20646.996      1288.5242
Averages over the last 41 of 81 rows, steps 520000 to 560000:
Temp E_pair E_mol TotEng Press Volume
1968.54 -606.213 0 -582.039 2579.99 1320.73
Loop time of 6.82355 on 1 procs for 80000 steps with 96 atoms

fix npt1 all npt temp 2000 1000 0.1 iso 0 0 1
run 80000
Step          Temp          E_pair         E_mol          TotEng         Press          Volume
560000   1684.506      -605.61866      0             -584.93341      29423.225      1303.2173
Averages over the last 41 of 81 rows, steps 600000 to 640000:
Temp E_pair E_mol TotEng Press Volume
1265.42 -616.158 0 -600.619 -451.911 1297
Loop time of 6.74355 on 1 procs for 80000 steps with 96 atoms

fix npt1 all npt temp 1000 1000 0.1 iso 0 0 1
run 80000
Step          Temp          E_pair         E_mol          TotEng         Press          Volume
640000   943.1263      -619.78233      0             -608.20101      4789.5803      1299.3319
Averages over the last 41 of 81 rows, steps 680000 to 720000:
Temp E_pair E_mol TotEng Press Volume
991.901 -619.166 0 -606.985 2353.39 1285.8
Loop time of 6.62629 on 1 procs for 80000 steps with 96 atoms

fix npt1 all npt temp 1000 500 0.1 iso 0 0 1
run 80000
Step          Temp          E_pair         E_mol          TotEng         Press          Volume
720000   896.00857     -618.11108      0             -607.10835      18226.263      1278.3963
Averages over the last 41 of 81 rows, steps 760000 to 800000:
Temp E_pair E_mol TotEng Press Volume
631.587 -624.226 0 -616.47 1266.59 1277.69
Loop time of 6.3635 on 1 procs for 80000 steps with 96 atoms

fix npt1 all npt temp 500 500 0.1 iso 0 0 1
run 80000
Step          Temp          E_pair         E_mol          TotEng         Press          Volume
800000   478.25665     -626.165        0             -620.29215      18163.755      1266.5306
Averages over the last 41 of 81 rows, steps 840000 to 880000:
Temp E_pair E_mol TotEng Press Volume
504.083 -626.011 0 -619.821 1479.89 1271.54
Loop time of 6.14585 on 1 procs for 80000 steps with 96 atoms

fix npt1 all npt temp 500 10 0.1 iso 0 0 1
run 80000
Step          Temp          E_pair         E_mol          TotEng         Press          Volume
880000   522.34755     -626.22345      0             -619.80917      14991.203      1249.312
Averages over the last 41 of 81 rows, steps 920000 to 960000:
Temp E_pair E_mol TotEng Press Volume
132.279 -630.676 0 -629.051 -1324 1260.83
Loop time of 7.56015 on 1 procs for 80000 steps with 96 atoms

fix npt1 all npt temp 10 10 0.1 iso 0 0 1
run 80000
Step          Temp          E_pair         E_mol          TotEng         Press          Volume
960000   9.4341196     -632.22268      0             -632.10683      4144.5744      1254.4254
Averages over the last 41 of 81 rows, steps 1000000 to 1040000:
Temp E_pair E_mol TotEng Press Volume
9.98908 -632.238 0 -632.115 167.57 1255.53
Loop time of 6.24548 on 1 procs for 80000 steps with 96 atoms

write_data amorphousSiO.data
System init for write_data ...
