LAMMPS (2 Aug 2023 - Update 3)
units metal
boundary p p p
atom_style full
pair_style tersoff
neighbor 2.0 bin
neigh_modify delay 1

read_data SiO.data
Reading data file ...
  orthogonal box = (0 0 0) to (12.589463 12.589463 13.222096)
  reading atoms ...
  96 atoms
Finding 1-2 1-3 1-4 neighbors ...
     0 = max # of 1-2 neighbors
     0 = max # of 1-3 neighbors
     0 = max # of 1-4 neighbors
     1 = max # of special neighbors
replicate 1 1 1
Replication is creating a 1x1x1 = 1 times larger system...
  orthogonal box = (0 0 0) to (12.589463 12.589463 13.222096)
  96 atoms
Finding 1-2 1-3 1-4 neighbors ...
     0 = max # of 1-2 neighbors
     0 = max # of 1-3 neighbors
     0 = max # of 1-4 neighbors
     1 = max # of special neighbors
  replicate CPU = 0.001 seconds

pair_coeff * *  /root/Desktop/host/job1/SiO.tersoff Si O
Reading tersoff potential file /root/Desktop/host/job1/SiO.tersoff with DATE: 2010-08-16

group Si type 1
32 atoms in group Si
group O type 2
64 atoms in group O
#create_bonds many SiO SiO 1 0.5 10

dump dmp all xyz 2000 dump.lammpstrj

variable apot equal pe
# first number: number of steps to get current temp
# second number: calculate average n number of temp read above.
# third number: temp record (this must be larger than the one above )

variable atemp equal temp
fix temp_info all ave/time 10 200 2000 v_atemp file temperature.dat

#The cutoff used for pairwise computation (any pair style) and the
#associated neighbor list is the maximum cutoff that any compute
#can use. Atoms don't know any info about their neighbors
#further away than that.

# compute coord number
compute coor12 Si coord/atom cutoff 2.5 group O
compute coor11 Si coord/atom cutoff 2.5 group Si
compute coor22 O coord/atom cutoff 2.0 group O

compute sumcoor12 all reduce ave c_coor12
compute sumcoor11 all reduce ave c_coor11
compute sumcoor22 all reduce ave c_coor22

fix 12coord all ave/time  10 200 2000 c_sumcoor12 file Si-O_coord_number.dat
fix 11coord all ave/time  10 200 2000  c_sumcoor11 file Si-Si_coord_number.dat
fix 22coord all ave/time  10 200 2000  c_sumcoor22 file O-O_coord_number.dat

# unit cell information
variable avol equal vol
variable alx equal lx
variable aly equal ly
variable alz equal lz
fix cell_info all ave/time 10 200 2000 v_avol v_alx v_aly v_alz file cell_volume.dat

fix potential_info all ave/time 10 200 2000 v_apot file potential-energy.dat
thermo 1000

velocity all create 6000 555212 mom yes rot no dist gaussian
fix npt1 all npt temp 6000 5000 0.1 iso 0 0  1
timestep 0.001
#run 500
run 80000
Step          Temp          E_pair         E_mol          TotEng         Press          Volume
0   6000          -638.06385      0             -564.38556      73800.118      2095.6304
Averages over the last 41 of 81 rows, steps 40000 to 80000:
Temp E_pair E_mol TotEng Press Volume
5377.3 -550.38 0 -484.349 -732.65 1458.37
Loop time of 7.63355 on 1 procs for 80000 steps with 96 atoms

fix npt1 all npt temp 5000 4000 0.1 iso 0 0 1
run 80000
Step          Temp          E_pair         E_mol          TotEng         Press          Volume
80000   5759.3469     -553.73099      0             -483.00786     -2234.7281      1473.8134
Averages over the last 41 of 81 rows, steps 120000 to 160000:
Temp E_pair E_mol TotEng Press Volume
4237.23 -569.547 0 -517.515 -7522.95 1508.53
Loop time of 7.18624 on 1 procs for 80000 steps with 96 atoms

fix npt1 all npt temp 4000 4000 0.1 iso 0 0 1
run 80000
Step          Temp          E_pair         E_mol          TotEng         Press          Volume
160000   3787.8318     -567.86936      0             -521.35587      24583.508      1548.8741
Averages over the last 41 of 81 rows, steps 200000 to 240000:
Temp E_pair E_mol TotEng Press Volume
3996.4 -577.428 0 -528.353 1755.22 1544.61
Loop time of 6.44495 on 1 procs for 80000 steps with 96 atoms

fix npt1 all npt temp 4000 3000 0.1 iso 0 0  1
run 80000
Step          Temp          E_pair         E_mol          TotEng         Press          Volume
240000   4205.8162     -584.67986      0             -533.03364      6049.6083      1510.6429
Averages over the last 41 of 81 rows, steps 280000 to 320000:
Temp E_pair E_mol TotEng Press Volume
3217.15 -583.277 0 -543.771 -5820.12 1448.16
Loop time of 7.08786 on 1 procs for 80000 steps with 96 atoms

fix npt1 all npt temp 3000 3000 0.1 iso 0 0 1
run 80000
Step          Temp          E_pair         E_mol          TotEng         Press          Volume
320000   2959.3864     -590.40412      0             -554.0637      -26359.258      1383.8372
Averages over the last 41 of 81 rows, steps 360000 to 400000:
Temp E_pair E_mol TotEng Press Volume
2978.31 -589.578 0 -553.005 1191.02 1429.63
Loop time of 6.52735 on 1 procs for 80000 steps with 96 atoms

fix npt1 all npt temp 3000 2000 0.1 iso 0 0 1
run 80000
Step          Temp          E_pair         E_mol          TotEng         Press          Volume
400000   2977.7146     -594.66702      0             -558.10154     -25175.753      1407.362
Averages over the last 41 of 81 rows, steps 440000 to 480000:
Temp E_pair E_mol TotEng Press Volume
2251 -600.101 0 -572.459 -2023.35 1382.45
Loop time of 6.32912 on 1 procs for 80000 steps with 96 atoms

fix npt1 all npt temp 2000 2000 0.1 iso 0 0 1
run 80000
Step          Temp          E_pair         E_mol          TotEng         Press          Volume
480000   1812.4374     -602.43241      0             -580.1762      -9924.0705      1367.5993
Averages over the last 41 of 81 rows, steps 520000 to 560000:
Temp E_pair E_mol TotEng Press Volume
2037.55 -604.112 0 -579.092 1926.99 1361.87
Loop time of 6.4643 on 1 procs for 80000 steps with 96 atoms

fix npt1 all npt temp 2000 1000 0.1 iso 0 0 1
run 80000
Step          Temp          E_pair         E_mol          TotEng         Press          Volume
560000   2213.8465     -601.50644      0             -574.32104     -14143.348      1328.2988
Averages over the last 41 of 81 rows, steps 600000 to 640000:
Temp E_pair E_mol TotEng Press Volume
1245.7 -613.864 0 -598.568 2762.87 1392.16
Loop time of 5.89738 on 1 procs for 80000 steps with 96 atoms

fix npt1 all npt temp 1000 1000 0.1 iso 0 0 1
run 80000
Step          Temp          E_pair         E_mol          TotEng         Press          Volume
640000   921.80902     -616.64183      0             -605.32228      8627.4989      1389.2872
Averages over the last 41 of 81 rows, steps 680000 to 720000:
Temp E_pair E_mol TotEng Press Volume
1007.91 -617.3 0 -604.923 1559.45 1386.86
Loop time of 5.98527 on 1 procs for 80000 steps with 96 atoms

fix npt1 all npt temp 1000 500 0.1 iso 0 0 1
run 80000
Step          Temp          E_pair         E_mol          TotEng         Press          Volume
720000   987.17053     -618.54283      0             -606.42066      309.01085      1374.6845
Averages over the last 41 of 81 rows, steps 760000 to 800000:
Temp E_pair E_mol TotEng Press Volume
619.362 -622.204 0 -614.598 1518.31 1379.46
Loop time of 5.84414 on 1 procs for 80000 steps with 96 atoms

fix npt1 all npt temp 500 500 0.1 iso 0 0 1
run 80000
Step          Temp          E_pair         E_mol          TotEng         Press          Volume
800000   485.63306     -623.48086      0             -617.51743     -3073.8213      1399.7757
Averages over the last 41 of 81 rows, steps 840000 to 880000:
Temp E_pair E_mol TotEng Press Volume
495.551 -623.957 0 -617.872 1121.71 1375.27
Loop time of 5.62572 on 1 procs for 80000 steps with 96 atoms

fix npt1 all npt temp 500 10 0.1 iso 0 0 1
run 80000
Step          Temp          E_pair         E_mol          TotEng         Press          Volume
880000   470.95472     -623.43981      0             -617.65662     -7594.5437      1369.6464
Averages over the last 41 of 81 rows, steps 920000 to 960000:
Temp E_pair E_mol TotEng Press Volume
136.706 -628.76 0 -627.082 729.712 1367.56
Loop time of 5.84014 on 1 procs for 80000 steps with 96 atoms

fix npt1 all npt temp 10 10 0.1 iso 0 0 1
run 80000
Step          Temp          E_pair         E_mol          TotEng         Press          Volume
960000   10.87871      -630.27256      0             -630.13897      1568.2294      1366.3056
Averages over the last 41 of 81 rows, steps 1000000 to 1040000:
Temp E_pair E_mol TotEng Press Volume
9.82243 -630.261 0 -630.14 -857.891 1366.55
Loop time of 5.70148 on 1 procs for 80000 steps with 96 atoms

write_data amorphousSiO.data
System init for write_data ...
